Circuit: * D:\Dropbox\Projects\64nixie\64nixie.asc

WARNING: Less than two connections to node OUT.  This node is used by R4.
Direct Newton iteration for .op point succeeded.

Date: Sat Jul 20 23:25:07 2019
Total elapsed time: 0.072 seconds.

tnom = 27
temp = 27
method = modified trap
totiter = 3982
traniter = 3934
tranpoints = 1514
accept = 1405
rejected = 109
matrix size = 10
fillins = 0
solver = Normal
Matrix Compiler1:      23 opcodes  0.1/[0.0]/0.0
Matrix Compiler2: off  [0.1]/0.1/0.1

